Version 4
SHEET 1 880 680
WIRE 368 -256 208 -256
WIRE 624 -256 368 -256
WIRE 624 -224 624 -256
WIRE 368 -160 368 -256
WIRE 208 -144 208 -256
WIRE 624 -96 624 -144
WIRE 368 -16 368 -80
WIRE 400 -16 368 -16
WIRE 528 -16 400 -16
WIRE 672 -16 592 -16
WIRE 80 48 32 48
WIRE 208 48 208 -64
WIRE 208 48 144 48
WIRE 304 48 304 32
WIRE 304 48 208 48
WIRE 672 64 672 -16
WIRE 368 112 368 80
WIRE 480 112 368 112
WIRE 208 128 208 48
WIRE 368 128 368 112
WIRE 480 128 480 112
WIRE 32 160 32 128
WIRE 32 272 32 240
WIRE 208 272 208 208
WIRE 208 272 32 272
WIRE 368 272 368 208
WIRE 368 272 208 272
WIRE 480 272 480 192
WIRE 480 272 368 272
WIRE 672 272 672 144
WIRE 672 272 480 272
FLAG 368 272 0
FLAG 624 -96 0
FLAG 400 -16 c
FLAG 368 112 e
FLAG 304 32 b
SYMBOL voltage 32 144 R0
WINDOW 3 24 152 Left 2
WINDOW 123 24 124 Left 2
WINDOW 39 0 0 Left 0
SYMATTR InstName V1
SYMATTR Value SINE(0 2.5m 100K 0 0 0)
SYMATTR Value2 AC 1
SYMBOL res 16 32 R0
SYMATTR InstName R1
SYMATTR Value 100
SYMBOL res 192 112 R0
SYMATTR InstName R2
SYMATTR Value 120k
SYMBOL res 352 -176 R0
SYMATTR InstName R3
SYMATTR Value 1.3k
SYMBOL res 352 112 R0
SYMATTR InstName R4
SYMATTR Value 1k
SYMBOL res 656 48 R0
SYMATTR InstName R5
SYMATTR Value 2.2k
SYMBOL cap 464 128 R0
SYMATTR InstName C1
SYMATTR Value 10µ
SYMBOL cap 144 32 R90
WINDOW 0 0 32 VBottom 2
WINDOW 3 32 32 VTop 2
SYMATTR InstName C2
SYMATTR Value 1µ
SYMBOL cap 592 -32 R90
WINDOW 0 0 32 VBottom 2
WINDOW 3 32 32 VTop 2
SYMATTR InstName C3
SYMATTR Value 1µ
SYMBOL voltage 624 -240 R0
WINDOW 123 0 0 Left 0
WINDOW 39 0 0 Left 0
SYMATTR InstName V2
SYMATTR Value 18
SYMBOL res 192 -160 R0
SYMATTR InstName R6
SYMATTR Value 560k
SYMBOL npn 304 -16 R0
SYMATTR InstName Q1
TEXT -2 336 Left 2 !;ac dec 100 10 1Meg
TEXT -4 356 Left 2 !;tran 0 0.25m 0 1u
TEXT 8 392 Left 2 !.MODEL Q1 NPN (BF=220)
TEXT 16 440 Left 2 !.op 0 0.25m 0 1u
