Version 4
SHEET 1 1800 884
WIRE 160 -176 160 -256
WIRE 160 -176 0 -176
WIRE 400 -176 160 -176
WIRE 160 -128 160 -176
WIRE 160 0 160 -48
WIRE 240 48 160 48
WIRE 112 80 64 80
WIRE 0 96 0 -176
WIRE 208 96 160 96
WIRE 320 112 320 16
WIRE 400 112 400 -176
WIRE 208 176 128 176
WIRE 224 224 128 224
WIRE 0 256 0 160
WIRE 0 256 -96 256
WIRE 80 256 0 256
WIRE 224 272 224 224
WIRE 224 272 128 272
WIRE 240 272 240 48
WIRE 240 272 224 272
WIRE 0 336 0 256
WIRE 16 336 0 336
WIRE 128 336 128 272
WIRE 128 336 80 336
WIRE 320 336 320 176
WIRE 320 336 128 336
WIRE 400 336 400 176
WIRE 400 336 320 336
WIRE 128 384 128 336
WIRE 768 544 640 544
WIRE 1104 544 1024 544
WIRE 1168 544 1104 544
WIRE 1280 544 1232 544
WIRE 1104 560 1104 544
WIRE 1280 560 1280 544
WIRE 832 672 832 640
WIRE 960 672 960 640
WIRE 960 672 832 672
WIRE 640 688 640 544
WIRE 1104 704 1104 640
WIRE 1200 704 1104 704
WIRE 832 720 832 672
WIRE 960 736 960 672
WIRE 1104 736 1104 704
WIRE 1200 752 1200 704
WIRE 1104 848 1104 816
WIRE 1200 848 1200 816
WIRE 1200 848 1104 848
WIRE 640 864 640 768
WIRE 832 864 832 800
WIRE 960 864 960 800
WIRE 1104 864 1104 848
WIRE 1280 864 1280 640
FLAG 128 384 S
FLAG -96 256 G1
FLAG 320 16 G2
FLAG 160 -256 D
FLAG 768 544 G1
FLAG 960 640 G2
FLAG 1024 544 D
FLAG 832 640 S
FLAG 640 864 0
FLAG 832 864 0
FLAG 960 864 0
FLAG 1104 864 0
FLAG 1280 864 0
FLAG 64 80 G2
SYMBOL nmos4 80 176 R0
SYMATTR InstName M1
SYMATTR Value2 l=1 w=1
SYMBOL nmos4 112 0 R0
SYMATTR InstName M2
SYMATTR Value2 l=1 w=1
SYMBOL res 224 192 R180
WINDOW 0 36 76 Left 2
WINDOW 3 36 40 Left 2
SYMATTR InstName R1
SYMATTR Value 50
SYMBOL res 144 -144 R0
SYMATTR InstName R2
SYMATTR Value 100
SYMBOL cap 80 320 R90
WINDOW 0 0 32 VBottom 2
WINDOW 3 32 32 VTop 2
SYMATTR InstName C1
SYMATTR Value 2.2p
SYMBOL cap 16 160 R180
WINDOW 0 24 56 Left 2
WINDOW 3 24 8 Left 2
SYMATTR InstName C2
SYMATTR Value 25f
SYMBOL cap 336 176 R180
WINDOW 0 24 56 Left 2
WINDOW 3 24 8 Left 2
SYMATTR InstName C3
SYMATTR Value 1.1p
SYMBOL cap 416 176 R180
WINDOW 0 24 56 Left 2
WINDOW 3 24 8 Left 2
SYMATTR InstName C4
SYMATTR Value 0.8p
SYMBOL res 624 672 R0
SYMATTR InstName R3
SYMATTR Value 1Meg
SYMBOL res 816 704 R0
SYMATTR InstName R4
SYMATTR Value 1k
SYMBOL res 1264 544 R0
SYMATTR InstName R5
SYMATTR Value 4.7k
SYMBOL res 1088 544 R0
SYMATTR InstName R6
SYMATTR Value 4.7k
SYMBOL voltage 1104 720 R0
WINDOW 123 0 0 Left 0
WINDOW 39 0 0 Left 0
SYMATTR InstName V1
SYMATTR Value 10
SYMBOL cap 1184 752 R0
SYMATTR InstName C5
SYMATTR Value 0.1µ
SYMBOL cap 944 736 R0
SYMATTR InstName C6
SYMATTR Value 1µ
SYMBOL cap 1232 528 R90
WINDOW 0 0 32 VBottom 2
WINDOW 3 32 32 VTop 2
SYMATTR InstName C7
SYMATTR Value 1µ
TEXT 512 72 Left 2 !.model M1 NMOS (kp=15m vt0=-1)
TEXT 512 128 Left 2 !.model M2 NMOS (kp=200m vt0=-1)
TEXT 520 176 Left 2 !.tran 0 1m 0 1u
