Version 4
SHEET 1 880 680
WIRE 336 0 192 0
WIRE 192 16 192 0
WIRE 336 96 336 80
WIRE 512 96 336 96
WIRE 240 112 192 112
WIRE 512 112 512 96
WIRE 144 144 144 80
WIRE 144 144 32 144
WIRE 240 144 240 112
WIRE 272 144 240 144
WIRE -96 192 -96 176
WIRE -96 192 -192 192
WIRE -192 224 -192 192
WIRE 336 224 336 192
FLAG 32 224 0
FLAG 512 192 0
FLAG 144 224 Vcc-
FLAG 336 304 Vcc-
FLAG -352 80 Vcc-
FLAG -96 96 Vcc+
FLAG 336 0 Vcc+
FLAG -192 224 0
FLAG -352 160 0
SYMBOL res 16 128 R0
SYMATTR InstName R1
SYMATTR Value 293.7k
SYMBOL res 128 128 R0
SYMATTR InstName R2
SYMATTR Value 100k
SYMBOL res 320 208 R0
SYMATTR InstName R3
SYMATTR Value 300
SYMBOL res 320 -16 R0
SYMATTR InstName R4
SYMATTR Value 1k
SYMBOL res 496 96 R0
SYMATTR InstName R5
SYMATTR Value 5k
SYMBOL npn 272 96 R0
SYMATTR InstName Q1
SYMBOL voltage -96 80 R0
WINDOW 123 0 0 Left 0
WINDOW 39 0 0 Left 0
SYMATTR InstName V1
SYMATTR Value 10
SYMBOL voltage -352 64 R0
WINDOW 123 0 0 Left 0
WINDOW 39 0 0 Left 0
SYMATTR InstName V2
SYMATTR Value -10
SYMBOL njf 144 16 R0
SYMATTR InstName J1
TEXT -216 400 Left 2 !.tran 0 10m 0 1u
TEXT -216 368 Left 2 !.MODEL Q1 AKO: 2N2222 (Bf=50)
TEXT -208 336 Left 2 !.MODEL J1 AKO: 2N3819 (Vto=-1.5; Is=4m)
